LTspice 24.0.12 for Windows
Circuit: * G:\My Drive\College\Plasma Lab\CUTE\CUTE_Schematics\LTspice\CUTE_X_Voltage_Circuit.asc
Start Time: Wed Jun  4 14:33:13 2025
solver = Normal
Maximum thread count: 16
tnom = 27
temp = 27
method = modified trap
WARNING: Node N008 is floating.
WARNING: Node N007 is floating.
WARNING: Node N011 is floating.
WARNING: Node N010 is floating.

Direct Newton iteration for .op point succeeded.
Ignoring empty pin current: Ix(x1:-)
Ignoring empty pin current: Ix(x2:-)
Ignoring empty pin current: Ix(x3:-)
Ignoring empty pin current: Ix(x4:-)
Ignoring empty pin current: Ix(x1:-)
Ignoring empty pin current: Ix(x2:-)
Ignoring empty pin current: Ix(x3:-)
Ignoring empty pin current: Ix(x4:-)
Total elapsed time: 0.434 seconds.

