LTspice 24.0.12 for Windows
Circuit: * C:\Users\maxe7\OneDrive\Documents\LTspice\H-Bridge.asc
Start Time: Wed Oct  2 18:32:00 2024
solver = Normal
Maximum thread count: 16
tnom = 27
temp = 27
method = modified trap
WARNING: Node S4+ is floating.
WARNING: Node S2+ is floating.
WARNING: Node +OUT is floating.
WARNING: Node S3+ is floating.
WARNING: Node S1+ is floating.

WARNING: Less than two connections to node s4+.  This node is used by s4.
WARNING: Less than two connections to node s2+.  This node is used by s2.
WARNING: Less than two connections to node s3+.  This node is used by s3.
WARNING: Less than two connections to node s1+.  This node is used by s1.
.OP point found by inspection.
Total elapsed time: 0.266 seconds.

