LTspice 24.0.12 for Windows
Circuit: * C:\Users\maxe7\OneDrive\Documents\LTspice\SPA_Test_Model.asc
Start Time: Fri Jun 13 17:15:42 2025
solver = Normal
Maximum thread count: 16
tnom = 27
temp = 27
method = modified trap
Limiting rise time of source v3 to 1e-06
Limiting fall time of source v3 to 1e-06
Limiting rise time of source v6 to 1e-06
Limiting fall time of source v6 to 1e-06
Direct Newton iteration for .op point succeeded.
Ignoring empty pin current: Ix(x1:s2+)
Ignoring empty pin current: Ix(x1:s1+)
Ignoring empty pin current: Ix(x1:s4+)
Ignoring empty pin current: Ix(x1:s3+)
Ignoring empty pin current: Ix(x1:s2+)
Ignoring empty pin current: Ix(x1:s1+)
Ignoring empty pin current: Ix(x1:s4+)
Ignoring empty pin current: Ix(x1:s3+)
Total elapsed time: 0.475 seconds.

